x0771benzo
     RDKit          3D

 16 16  0  0  0  0  0  0  0  0999 V2000
   -5.6980   11.7390  -29.2630 N   0  0  0  0  0  0  0  0  0  0  0  0
   -6.4690   10.8180  -29.9210 C   0  0  0  0  0  0  0  0  0  0  0  0
   -7.0810    9.9360  -29.3280 O   0  0  0  0  0  0  0  0  0  0  0  0
   -6.5200   10.9260  -31.2970 C   0  0  0  0  0  0  0  0  0  0  0  0
   -6.5480    9.7970  -32.0740 C   0  0  0  0  0  0  0  0  0  0  0  0
   -6.5820    9.9320  -33.4590 C   0  0  0  0  0  0  0  0  0  0  0  0
   -6.5990   11.1560  -34.0460 C   0  0  0  0  0  0  0  0  0  0  0  0
   -6.5800   12.2960  -33.2610 C   0  0  0  0  0  0  0  0  0  0  0  0
   -6.5390   12.1950  -31.8830 C   0  0  0  0  0  0  0  0  0  0  0  0
   -4.7620   11.9630  -29.5770 H   0  0  0  0  0  0  0  0  0  0  0  0
   -5.8970   11.8700  -28.2780 H   0  0  0  0  0  0  0  0  0  0  0  0
   -6.5370    8.8030  -31.6330 H   0  0  0  0  0  0  0  0  0  0  0  0
   -6.5860    9.0530  -34.0800 H   0  0  0  0  0  0  0  0  0  0  0  0
   -6.6270   11.2420  -35.1300 H   0  0  0  0  0  0  0  0  0  0  0  0
   -6.5960   13.2760  -33.7270 H   0  0  0  0  0  0  0  0  0  0  0  0
   -6.5210   13.0940  -31.2650 H   0  0  0  0  0  0  0  0  0  0  0  0
  1  2  1  0
  2  3  2  0
  2  4  1  0
  4  5  2  0
  5  6  1  0
  6  7  2  0
  7  8  1  0
  8  9  2  0
  9  4  1  0
  1 10  1  0
  1 11  1  0
  5 12  1  0
  6 13  1  0
  7 14  1  0
  8 15  1  0
  9 16  1  0
A    1
 N1 
A    2
 C1 
A    3
 O1 
A    4
 C2 
A    5
 C3 
A    6
 C4 
A    7
 C5 
A    8
 C6 
A    9
 C7 
A   10
 H1 
A   11
 H2 
A   12
 H3 
A   13
 H4 
A   14
 H5 
A   15
 H6 
A   16
 H7 
M  END
$$$$
x1604base
     RDKit          3D

 13 13  0  0  0  0  0  0  0  0999 V2000
   -4.3950   12.3710  -31.1110 C   0  0  0  0  0  0  0  0  0  0  0  0
   -5.0900   11.3630  -31.7690 C   0  0  0  0  0  0  0  0  0  0  0  0
   -6.0450   10.6410  -31.0670 C   0  0  0  0  0  0  0  0  0  0  0  0
   -7.0320    9.2590  -31.8290 Br  0  0  0  0  0  0  0  0  0  0  0  0
   -6.3230   10.8960  -29.7640 C   0  0  0  0  0  0  0  0  0  0  0  0
   -7.2940   10.1360  -29.1610 O   0  0  0  0  0  0  0  0  0  0  0  0
   -5.6430   11.9020  -29.0680 C   0  0  0  0  0  0  0  0  0  0  0  0
   -4.6820   12.6230  -29.7680 C   0  0  0  0  0  0  0  0  0  0  0  0
   -3.6400   12.9540  -31.6320 H   0  0  0  0  0  0  0  0  0  0  0  0
   -4.8780   11.1520  -32.8140 H   0  0  0  0  0  0  0  0  0  0  0  0
   -7.6770   10.6740  -28.4360 H   0  0  0  0  0  0  0  0  0  0  0  0
   -5.8380   12.1260  -28.0270 H   0  0  0  0  0  0  0  0  0  0  0  0
   -4.1910   13.3930  -29.1590 H   0  0  0  0  0  0  0  0  0  0  0  0
  1  2  2  0
  2  3  1  0
  3  4  1  0
  3  5  2  0
  5  6  1  0
  5  7  1  0
  7  8  2  0
  8  1  1  0
  1  9  1  0
  2 10  1  0
  6 11  1  0
  7 12  1  0
  8 13  1  0
A    1
 C1 
A    2
 C2 
A    3
 C3 
A    4
BR1 
A    5
 C4 
A    6
 O1 
A    7
 C5 
A    8
 C6 
A    9
 H1 
A   10
 H2 
A   11
 H3 
A   12
 H4 
A   13
 H5 
M  END
$$$$
x1604amino
     RDKit          3D

 15 15  0  0  0  0  0  0  0  0999 V2000
   -4.4010   12.3240  -31.3910 C   0  0  0  0  0  0  0  0  0  0  0  0
   -5.1490   11.2910  -31.9380 C   0  0  0  0  0  0  0  0  0  0  0  0
   -6.0520   10.6160  -31.1360 C   0  0  0  0  0  0  0  0  0  0  0  0
   -7.0830    9.2000  -31.7660 Br  0  0  0  0  0  0  0  0  0  0  0  0
   -6.2360   10.9440  -29.8340 C   0  0  0  0  0  0  0  0  0  0  0  0
   -7.1700   10.2190  -29.1360 O   0  0  0  0  0  0  0  0  0  0  0  0
   -5.4880   11.9870  -29.2560 C   0  0  0  0  0  0  0  0  0  0  0  0
   -5.6150   12.3690  -27.9270 N   0  0  0  0  0  0  0  0  0  0  0  0
   -4.5700   12.6680  -30.0520 C   0  0  0  0  0  0  0  0  0  0  0  0
   -3.6810   12.8660  -32.0040 H   0  0  0  0  0  0  0  0  0  0  0  0
   -5.0210   11.0200  -32.9800 H   0  0  0  0  0  0  0  0  0  0  0  0
   -7.4560   10.7770  -28.3890 H   0  0  0  0  0  0  0  0  0  0  0  0
   -5.1930   13.2910  -27.8150 H   0  0  0  0  0  0  0  0  0  0  0  0
   -5.2080   11.6900  -27.2930 H   0  0  0  0  0  0  0  0  0  0  0  0
   -3.9810   13.4750  -29.6250 H   0  0  0  0  0  0  0  0  0  0  0  0
  1  2  2  0
  2  3  1  0
  3  4  1  0
  3  5  2  0
  5  6  1  0
  5  7  1  0
  7  8  1  0
  7  9  2  0
  9  1  1  0
  1 10  1  0
  2 11  1  0
  6 12  1  0
  8 13  1  0
  8 14  1  0
  9 15  1  0
A    1
 C1 
A    2
 C2 
A    3
 C3 
A    4
BR1 
A    5
 C4 
A    6
 O1 
A    7
 C5 
A    8
 N1 
A    9
 C6 
A   10
 H1 
A   11
 H2 
A   12
 H3 
A   13
 H4 
A   14
 H5 
A   15
 H6 
M  END
$$$$
x1604hydroxyl
     RDKit          3D

 14 14  0  0  0  0  0  0  0  0999 V2000
   -4.4810   12.4260  -31.1290 C   0  0  0  0  0  0  0  0  0  0  0  0
   -5.1760   11.3840  -31.7440 C   0  0  0  0  0  0  0  0  0  0  0  0
   -6.0670   10.6280  -30.9850 C   0  0  0  0  0  0  0  0  0  0  0  0
   -7.0310    9.2080  -31.7280 Br  0  0  0  0  0  0  0  0  0  0  0  0
   -6.2680   10.8940  -29.6590 C   0  0  0  0  0  0  0  0  0  0  0  0
   -7.1500   10.1320  -28.9400 O   0  0  0  0  0  0  0  0  0  0  0  0
   -5.5850   11.9350  -29.0150 C   0  0  0  0  0  0  0  0  0  0  0  0
   -5.8080   12.1780  -27.6810 O   0  0  0  0  0  0  0  0  0  0  0  0
   -4.6960   12.6840  -29.7740 C   0  0  0  0  0  0  0  0  0  0  0  0
   -3.7810   13.0330  -31.6970 H   0  0  0  0  0  0  0  0  0  0  0  0
   -5.0190   11.1710  -32.7960 H   0  0  0  0  0  0  0  0  0  0  0  0
   -7.1100    9.2340  -29.3130 H   0  0  0  0  0  0  0  0  0  0  0  0
   -6.1540   11.3600  -27.2710 H   0  0  0  0  0  0  0  0  0  0  0  0
   -4.1990   13.4780  -29.2020 H   0  0  0  0  0  0  0  0  0  0  0  0
  1  2  2  0
  2  3  1  0
  3  4  1  0
  3  5  2  0
  5  6  1  0
  5  7  1  0
  7  8  1  0
  7  9  2  0
  9  1  1  0
  1 10  1  0
  2 11  1  0
  6 12  1  0
  8 13  1  0
  9 14  1  0
A    1
 C1 
A    2
 C2 
A    3
 C3 
A    4
BR1 
A    5
 C4 
A    6
 O1 
A    7
 C5 
A    8
 O2 
A    9
 C6 
A   10
 H1 
A   11
 H2 
A   12
 H3 
A   13
 H4 
A   14
 H5 
M  END
$$$$
